---- qbsp / ericw-tools v0.18.1 ----
Input file: zombiemap.map
Output file: zombiemap.bsp

---- LoadMapFile ----
*** WARNING 06: No info_player_deathmatch entities in level
           48 faces
            8 brushes
            9 entities
            3 unique texnames
           17 texinfo

Opened WAD: C:/QuakeDev/quake-leveldesign-starterkit-master/wads/rogue.wad
Processing hull 0...
---- Brush_LoadEntity ----
            8 brushes
           22 planes
---- CSGFaces ----
           48 brushfaces
           69 csgfaces
           62 mergedfaces
---- SolidBSP ----
          102 split nodes
           34 solid leafs
           69 empty leafs
            0 water leafs
            0 detail leafs
            0 detail illusionary leafs
            0 detail fence leafs
            0 illusionary visblocker leafs
          169 leaffaces
          167 nodefaces
---- Portalize ----
           69 vis leafs
           69 vis clusters
          152 vis portals
---- FillOutside ----
           62 outleafs
---- MergeAll ----
           24 mergefaces
---- SolidBSP ----
           14 split nodes
           10 solid leafs
            5 empty leafs
            0 water leafs
            0 detail leafs
            0 detail illusionary leafs
            0 detail fence leafs
            0 illusionary visblocker leafs
           52 leaffaces
           42 nodefaces
---- Portalize ----
            5 vis leafs
            5 vis clusters
            6 vis portals
---- Tjunc ----
           46 world edges
          160 edge points
           56 edges added by tjunctions
            0 faces added by tjunctions
---- MakeFaceEdges ----
---- GrowRegions ----
Processing hull 1...
Processing hull 2...
*** WARNING 19: No entities in empty space -- no filling performed (hull 2)
---- WriteBSPFile ----
Wrote zombiemap.bsp
           45 planes              900
           68 vertexes            816
           14 nodes               336
            7 texinfo             280
           42 faces               840
          122 clipnodes           976
            6 leafs               168
           52 marksurfaces        104
          224 surfedges           896
          113 edges               452
            3 textures          16456
              lightdata             0
              visdata               0
              entdata             614

0.255 seconds elapsed
Peak memory usage: 609476 (0.6M)
